@<TRIPOS>MOLECULE
HYD.xyz
 9 8 0 0 0
SMALL
GASTEIGER

@<TRIPOS>ATOM
      1 C          -1.3011    0.0269   -0.1007 C.3     1  UNL1       -0.3511
      2 C           0.1302   -0.4725   -0.2780 C.3     1  UNL1        0.4424
      3 O           1.0897    0.3558    0.3709 O.3     1  UNL1       -0.7164
      4 H          -1.4359    1.0118   -0.5673 H       1  UNL1        0.0825
      5 H          -2.0177   -0.6607   -0.5660 H       1  UNL1        0.0693
      6 H          -1.5456    0.1182    0.9629 H       1  UNL1        0.0969
      7 H           0.3636   -0.5840   -1.3498 H       1  UNL1       -0.0578
      8 H           0.2462   -1.4604    0.1801 H       1  UNL1        0.0162
      9 H           1.0370    1.2342   -0.0368 H       1  UNL1        0.4181
@<TRIPOS>BOND
     1     7     2    1
     2     4     1    1
     3     5     1    1
     4     2     1    1
     5     2     8    1
     6     2     3    1
     7     1     6    1
     8     9     3    1
