@<TRIPOS>MOLECULE
BLA.xyz
 8 7 0 0 0
SMALL
GASTEIGER

@<TRIPOS>ATOM
      1 C          -0.7650    0.0073   -0.0152 C.3     1  UNL1       -0.0681
      2 C           0.7651   -0.0073    0.0152 C.3     1  UNL1       -0.0681
      3 H          -1.1855   -0.1011    0.9914 H       1  UNL1        0.0227
      4 H          -1.1467    0.9460   -0.4330 H       1  UNL1        0.0227
      5 H          -1.1600   -0.8115   -0.6277 H       1  UNL1        0.0227
      6 H           1.1597    0.8120    0.6272 H       1  UNL1        0.0227
      7 H           1.1849    0.1006   -0.9916 H       1  UNL1        0.0227
      8 H           1.1472   -0.9457    0.4335 H       1  UNL1        0.0227
@<TRIPOS>BOND
     1     7     2    1
     2     5     1    1
     3     4     1    1
     4     1     2    1
     5     1     3    1
     6     2     8    1
     7     2     6    1
