@<TRIPOS>MOLECULE
ARO.xyz
 19 19 0 0 0
SMALL
GASTEIGER

@<TRIPOS>ATOM
      1 C          -3.3317   -0.2736    0.3976 C.3     1  UNL1       -0.0613
      2 C          -2.4315    0.4521   -0.6185 C.3     1  UNL1       -0.0305
      3 C          -0.9538    0.2568   -0.3497 C.ar    1  UNL1       -0.0474
      4 C          -0.2622   -0.8484   -0.8677 C.ar    1  UNL1       -0.0551
      5 C           1.0864   -1.0612   -0.5968 C.ar    1  UNL1       -0.0199
      6 C           1.7814   -0.1554    0.2110 C.ar    1  UNL1        0.1169
      7 O           3.1078   -0.4051    0.4463 O.3     1  UNL1       -0.5068
      8 C           1.1150    0.9552    0.7361 C.ar    1  UNL1       -0.0199
      9 C          -0.2375    1.1511    0.4536 C.ar    1  UNL1       -0.0551
     10 H          -3.1423    0.0851    1.4156 H       1  UNL1        0.0233
     11 H          -4.3921   -0.1112    0.1706 H       1  UNL1        0.0233
     12 H          -3.1435   -1.3532    0.3873 H       1  UNL1        0.0233
     13 H          -2.6713    0.0949   -1.6284 H       1  UNL1        0.0311
     14 H          -2.6682    1.5238   -0.6065 H       1  UNL1        0.0311
     15 H          -0.7905   -1.5576   -1.5018 H       1  UNL1        0.0621
     16 H           1.6167   -1.9161   -1.0048 H       1  UNL1        0.0654
     17 H           3.4618    0.2969    1.0138 H       1  UNL1        0.2921
     18 H           1.6520    1.6685    1.3596 H       1  UNL1        0.0654
     19 H          -0.7415    2.0225    0.8665 H       1  UNL1        0.0621
@<TRIPOS>BOND
     1    13     2    1
     2    15     4    1
     3    16     5    1
     4     4     5   ar
     5     4     3   ar
     6     2    14    1
     7     2     3    1
     8     2     1    1
     9     5     6   ar
    10     3     9   ar
    11    11     1    1
    12     6     7    1
    13     6     8   ar
    14    12     1    1
    15     1    10    1
    16     7    17    1
    17     9     8   ar
    18     9    19    1
    19     8    18    1
