@<TRIPOS>MOLECULE
ARO
   19    19     1     0     0
SMALL
No Charge or Current Charge


@<TRIPOS>ATOM
1	C	-3.3320	-0.2740	0.3980	c3	1	ARO	-0.11710
2	C1	-2.4320	0.4520	-0.6190	c3	1	ARO	0.08830
3	C2	-0.9540	0.2570	-0.3500	ca	1	ARO	-0.05830
4	C3	-0.2620	-0.8480	-0.8680	ca	1	ARO	-0.14490
5	C4	1.0860	-1.0610	-0.5970	ca	1	ARO	-0.32120
6	C5	1.7810	-0.1550	0.2110	ca	1	ARO	0.50230
7	O	3.1080	-0.4050	0.4460	oh	1	ARO	-0.64540
8	C6	1.1150	0.9550	0.7360	ca	1	ARO	-0.45230
9	C7	-0.2370	1.1510	0.4540	ca	1	ARO	-0.06970
10	H	-3.1420	0.0850	1.4160	hc	1	ARO	0.03350
11	H1	-4.3920	-0.1110	0.1710	hc	1	ARO	0.02310
12	H2	-3.1430	-1.3530	0.3870	hc	1	ARO	0.03510
13	H3	-2.6710	0.0950	-1.6280	hc	1	ARO	0.00720
14	H4	-2.6680	1.5240	-0.6070	hc	1	ARO	-0.00150
15	H5	-0.7900	-1.5580	-1.5020	ha	1	ARO	0.15520
16	H6	1.6170	-1.9160	-1.0050	ha	1	ARO	0.19510
17	H7	3.4620	0.2970	1.0140	ho	1	ARO	0.43760
18	H8	1.6520	1.6690	1.3600	ha	1	ARO	0.18700
19	H9	-0.7420	2.0220	0.8670	ha	1	ARO	0.14600
@<TRIPOS>BOND
     1    13     2 1   
     2    15     4 1   
     3    16     5 1   
     4     4     5 ar  
     5     4     3 ar  
     6     2    14 1   
     7     2     3 1   
     8     2     1 1   
     9     5     6 ar  
    10     3     9 ar  
    11    11     1 1   
    12     6     7 1   
    13     6     8 ar  
    14    12     1 1   
    15     1    10 1   
    16     7    17 1   
    17     9     8 ar  
    18     9    19 1   
    19     8    18 1   
@<TRIPOS>SUBSTRUCTURE
     1 ARO         1 TEMP              0 ****  ****    0 ROOT
