@<TRIPOS>MOLECULE
BLA
    8     7     1     0     0
SMALL
No Charge or Current Charge


@<TRIPOS>ATOM
1	C	-0.7650	0.0070	-0.0150	c3	1	BLA	-0.05130
2	C1	0.7650	-0.0070	0.0150	c3	1	BLA	-0.02650
3	H	-1.1850	-0.1010	0.9910	hc	1	BLA	0.01590
4	H1	-1.1470	0.9460	-0.4330	hc	1	BLA	0.01510
5	H2	-1.1600	-0.8110	-0.6280	hc	1	BLA	0.01550
6	H3	1.1600	0.8120	0.6270	hc	1	BLA	0.01000
7	H4	1.1850	0.1010	-0.9920	hc	1	BLA	0.01100
8	H5	1.1470	-0.9460	0.4330	hc	1	BLA	0.01030
@<TRIPOS>BOND
     1     7     2 1   
     2     5     1 1   
     3     4     1 1   
     4     1     2 1   
     5     1     3 1   
     6     2     8 1   
     7     2     6 1   
@<TRIPOS>SUBSTRUCTURE
     1 BLA         1 TEMP              0 ****  ****    0 ROOT
