@<TRIPOS>MOLECULE
THI.xyz
 9 8 0 0 0
SMALL
GASTEIGER

@<TRIPOS>ATOM
      1 C          -1.6954    0.4325   -0.3303 C.3     1  UNL1       -0.0564
      2 C          -0.4367   -0.3567   -0.6808 C.3     1  UNL1       -0.0122
      3 S           0.9791   -0.0778    0.4685 S.3     1  UNL1       -0.1785
      4 H          -2.5052    0.1834   -1.0278 H       1  UNL1        0.0237
      5 H          -1.5184    1.5120   -0.3961 H       1  UNL1        0.0237
      6 H          -2.0319    0.2073    0.6863 H       1  UNL1        0.0237
      7 H          -0.1089   -0.1495   -1.7040 H       1  UNL1        0.0371
      8 H          -0.6228   -1.4335   -0.6147 H       1  UNL1        0.0371
      9 H           1.1137    1.2464    0.2348 H       1  UNL1        0.1016
@<TRIPOS>BOND
     1     7     2    1
     2     4     1    1
     3     2     8    1
     4     2     1    1
     5     2     3    1
     6     5     1    1
     7     1     6    1
     8     9     3    1
