@<TRIPOS>MOLECULE
NEG.xyz
 10 9 0 0 0
SMALL
GASTEIGER

@<TRIPOS>ATOM
      1 C          -1.9961    0.2171   -0.0180 C.3     1  UNL1       -0.1475
      2 C          -0.7786   -0.5541    0.4937 C.3     1  UNL1        0.0492
      3 C           0.6085   -0.0147   -0.0301 C.2     1  UNL1        0.8064
      4 O           0.5508    0.8893   -0.9038 O.co2   1  UNL1       -0.8099
      5 O           1.6102   -0.5699    0.4861 O.co2   1  UNL1       -0.8418
      6 H          -1.9569    1.2628    0.3098 H       1  UNL1        0.0227
      7 H          -1.9919    0.2397   -1.1126 H       1  UNL1        0.0306
      8 H          -2.9500   -0.2163    0.3266 H       1  UNL1       -0.0229
      9 H          -0.7502   -0.5540    1.5937 H       1  UNL1       -0.0455
     10 H          -0.8532   -1.6149    0.2057 H       1  UNL1       -0.0414
@<TRIPOS>BOND
     1     7     1    1
     2     4     3   ar
     3     3     5   ar
     4     3     2    1
     5     1     6    1
     6     1     8    1
     7     1     2    1
     8    10     2    1
     9     2     9    1
