@<TRIPOS>MOLECULE
NEG
   10     9     1     0     0
SMALL
No Charge or Current Charge


@<TRIPOS>ATOM
      1 C           -1.9960     0.2170    -0.0180 c3         1 NEG      -0.147500
      2 C1          -0.7790    -0.5540     0.4940 c3         1 NEG       0.049200
      3 C2           0.6090    -0.0150    -0.0300 c2         1 NEG       0.806400
      4 O            0.5510     0.8890    -0.9040 o          1 NEG      -0.809900
      5 O1           1.6100    -0.5700     0.4860 o          1 NEG      -0.841800
      6 H           -1.9570     1.2630     0.3100 hc         1 NEG       0.022700
      7 H1          -1.9920     0.2400    -1.1130 hc         1 NEG       0.030600
      8 H2          -2.9500    -0.2160     0.3270 hc         1 NEG      -0.022900
      9 H3          -0.7500    -0.5540     1.5940 hc         1 NEG      -0.045500
     10 H4          -0.8530    -1.6150     0.2060 hc         1 NEG      -0.041400
@<TRIPOS>BOND
     1     7     1 1   
     2     4     3 ar  
     3     3     5 ar  
     4     3     2 1   
     5     1     6 1   
     6     1     8 1   
     7     1     2 1   
     8    10     2 1   
     9     2     9 1   
@<TRIPOS>SUBSTRUCTURE
     1 NEG         1 TEMP              0 ****  ****    0 ROOT
