@<TRIPOS>MOLECULE
MTY.xyz
 11 10 0 0 0
SMALL
GASTEIGER

@<TRIPOS>ATOM
      1 C           1.2619   -0.0155   -0.3294 C.3     1  UNL1       -0.0655
      2 C           0.0164   -0.1935    0.5446 C.3     1  UNL1       -0.0588
      3 C          -1.2773    0.1956   -0.1776 C.3     1  UNL1       -0.0655
      4 H           1.3740    1.0284   -0.6480 H       1  UNL1        0.0230
      5 H           2.1750   -0.2995    0.2067 H       1  UNL1        0.0230
      6 H           1.2009   -0.6319   -1.2350 H       1  UNL1        0.0230
      7 H          -0.0512   -1.2386    0.8767 H       1  UNL1        0.0260
      8 H           0.1218    0.4092    1.4570 H       1  UNL1        0.0260
      9 H          -2.1544    0.0624    0.4664 H       1  UNL1        0.0230
     10 H          -1.4271   -0.4168   -1.0750 H       1  UNL1        0.0230
     11 H          -1.2516    1.2460   -0.4961 H       1  UNL1        0.0230
@<TRIPOS>BOND
     1     6     1    1
     2    10     3    1
     3     4     1    1
     4    11     3    1
     5     1     5    1
     6     1     2    1
     7     3     9    1
     8     3     2    1
     9     2     7    1
    10     2     8    1
