@<TRIPOS>MOLECULE
MTO
   12    11     1     0     0
SMALL
No Charge or Current Charge


@<TRIPOS>ATOM
1	C	-1.8660	-0.0960	0.1350	c3	1	MTO	-0.36510
2	C1	-0.4320	-0.5940	0.0590	c3	1	MTO	0.36880
3	O	0.4270	0.5270	-0.0550	os	1	MTO	-0.41200
4	C2	1.7870	0.1660	-0.1330	c3	1	MTO	-0.05380
5	H	-2.5610	-0.9390	0.2250	hc	1	MTO	0.08100
6	H1	-2.1230	0.4720	-0.7650	hc	1	MTO	0.10090
7	H2	-1.9990	0.5580	1.0020	hc	1	MTO	0.10060
8	H3	-0.1760	-1.1790	0.9600	h1	1	MTO	-0.01410
9	H4	-0.3000	-1.2650	-0.8080	h1	1	MTO	-0.01530
10	H5	2.3640	1.0900	-0.2180	h1	1	MTO	0.09820
11	H6	1.9940	-0.4660	-1.0130	h1	1	MTO	0.05560
12	H7	2.1190	-0.3800	0.7660	h1	1	MTO	0.05520
@<TRIPOS>BOND
     1    11     4 1   
     2     9     2 1   
     3     6     1 1   
     4    10     4 1   
     5     4     3 1   
     6     4    12 1   
     7     3     2 1   
     8     2     1 1   
     9     2     8 1   
    10     1     5 1   
    11     1     7 1   
@<TRIPOS>SUBSTRUCTURE
     1 MTO         1 TEMP              0 ****  ****    0 ROOT
