@<TRIPOS>MOLECULE
THE
    8     7     1     0     0
SMALL
No Charge or Current Charge


@<TRIPOS>ATOM
      1 C           -1.6640    -0.5340     0.2350 c3         1 THE      -0.046300
      2 C1          -0.1610    -0.8360     0.1550 c3         1 THE       0.004500
      3 S            0.8750     0.6480    -0.1860 s          1 THE      -0.982400
      4 H           -2.2710    -1.4380     0.4420 hc         1 THE      -0.054500
      5 H1          -1.8610     0.2010     1.0260 hc         1 THE       0.017000
      6 H2          -2.0130    -0.0930    -0.7070 hc         1 THE       0.017300
      7 H3          -0.0110    -1.6050    -0.6210 h1         1 THE       0.022200
      8 H4           0.1380    -1.3130     1.1050 h1         1 THE       0.022100
@<TRIPOS>BOND
     1     6     1 1   
     2     7     2 1   
     3     3     2 1   
     4     2     1 1   
     5     2     8 1   
     6     1     4 1   
     7     1     5 1   
@<TRIPOS>SUBSTRUCTURE
     1 THE         1 TEMP              0 ****  ****    0 ROOT
