@<TRIPOS>MOLECULE
MTY
   11    10     1     0     0
SMALL
No Charge or Current Charge


@<TRIPOS>ATOM
1	C	1.2620	-0.0150	-0.3290	c3	1	MTY	-0.31520
2	C1	0.0160	-0.1940	0.5450	c3	1	MTY	0.31790
3	C2	-1.2770	0.1960	-0.1780	c3	1	MTY	-0.29740
4	H	1.3740	1.0280	-0.6480	hc	1	MTY	0.07190
5	H1	2.1750	-0.2990	0.2070	hc	1	MTY	0.06200
6	H2	1.2010	-0.6320	-1.2350	hc	1	MTY	0.07190
7	H3	-0.0510	-1.2390	0.8770	hc	1	MTY	-0.05200
8	H4	0.1220	0.4090	1.4570	hc	1	MTY	-0.05110
9	H5	-2.1540	0.0620	0.4660	hc	1	MTY	0.05750
10	H6	-1.4270	-0.4170	-1.0750	hc	1	MTY	0.06740
11	H7	-1.2520	1.2460	-0.4960	hc	1	MTY	0.06710
@<TRIPOS>BOND
     1     6     1 1   
     2    10     3 1   
     3     4     1 1   
     4    11     3 1   
     5     1     5 1   
     6     1     2 1   
     7     3     9 1   
     8     3     2 1   
     9     2     7 1   
    10     2     8 1   
@<TRIPOS>SUBSTRUCTURE
     1 MTY         1 TEMP              0 ****  ****    0 ROOT
