@<TRIPOS>MOLECULE
HYD
    9     8     1     0     0
SMALL
No Charge or Current Charge


@<TRIPOS>ATOM
1	C	-1.3010	0.0270	-0.1010	c3	1	HYD	-0.35110
2	C1	0.1300	-0.4720	-0.2780	c3	1	HYD	0.44240
3	O	1.0900	0.3560	0.3710	oh	1	HYD	-0.71650
4	H	-1.4360	1.0120	-0.5670	hc	1	HYD	0.08250
5	H1	-2.0180	-0.6610	-0.5660	hc	1	HYD	0.06930
6	H2	-1.5460	0.1180	0.9630	hc	1	HYD	0.09690
7	H3	0.3640	-0.5840	-1.3500	h1	1	HYD	-0.05780
8	H4	0.2460	-1.4600	0.1800	h1	1	HYD	0.01620
9	H5	1.0370	1.2340	-0.0370	ho	1	HYD	0.41810
@<TRIPOS>BOND
     1     7     2 1   
     2     4     1 1   
     3     5     1 1   
     4     2     1 1   
     5     2     8 1   
     6     2     3 1   
     7     1     6 1   
     8     9     3 1   
@<TRIPOS>SUBSTRUCTURE
     1 HYD         1 TEMP              0 ****  ****    0 ROOT
