@<TRIPOS>MOLECULE
ARM.xyz
 18 18 0 0 0
SMALL
GASTEIGER

@<TRIPOS>ATOM
      1 C           2.8081   -0.3814   -0.6510 C.3     1  UNL1       -0.0431
      2 C           1.9926    0.2723    0.4792 C.3     1  UNL1        0.0094
      3 C           0.4970    0.1542    0.2698 C.ar    1  UNL1        0.0560
      4 C          -0.2037   -0.9759    0.7131 C.ar    1  UNL1       -0.1812
      5 C          -1.5750   -1.1052    0.4894 C.ar    1  UNL1       -0.1558
      6 C          -2.2728   -0.1007   -0.1840 C.ar    1  UNL1       -0.1213
      7 C          -1.5884    1.0314   -0.6297 C.ar    1  UNL1       -0.1377
      8 C          -0.2168    1.1547   -0.4033 C.ar    1  UNL1       -0.1821
      9 H           3.8840   -0.2805   -0.4675 H       1  UNL1        0.0103
     10 H           2.5824    0.0838   -1.6170 H       1  UNL1        0.0183
     11 H           2.5760   -1.4491   -0.7353 H       1  UNL1        0.0163
     12 H           2.2694    1.3314    0.5564 H       1  UNL1        0.0172
     13 H           2.2674   -0.1914    1.4353 H       1  UNL1        0.0166
     14 H           0.3318   -1.7612    1.2433 H       1  UNL1        0.1419
     15 H          -2.0994   -1.9886    0.8448 H       1  UNL1        0.1389
     16 H          -3.3417   -0.1972   -0.3551 H       1  UNL1        0.1260
     17 H          -2.1230    1.8217   -1.1508 H       1  UNL1        0.1314
     18 H           0.3088    2.0423   -0.7499 H       1  UNL1        0.1387
@<TRIPOS>BOND
     1    10     1    1
     2    17     7    1
     3    18     8    1
     4    11     1    1
     5     1     9    1
     6     1     2    1
     7     7     8   ar
     8     7     6   ar
     9     8     3   ar
    10    16     6    1
    11     6     5   ar
    12     3     2    1
    13     3     4   ar
    14     2    12    1
    15     2    13    1
    16     5     4   ar
    17     5    15    1
    18     4    14    1
