@<TRIPOS>MOLECULE
ETY
   14    13     1     0     0
SMALL
No Charge or Current Charge


@<TRIPOS>ATOM
      1 C           -1.6370     0.4220     0.0350 c3         1 ETY      -0.192700
      2 C1          -0.5660    -0.4000    -0.6920 c3         1 ETY       0.073900
      3 C2           0.6990    -0.6720     0.1390 c3         1 ETY       0.075100
      4 C3           1.5120     0.5820     0.4840 c3         1 ETY      -0.198700
      5 H           -1.2780     1.4250     0.2920 hc         1 ETY       0.048100
      6 H1          -1.9450    -0.0690     0.9660 hc         1 ETY       0.048200
      7 H2          -2.5310     0.5430    -0.5880 hc         1 ETY       0.044600
      8 H3          -0.2820     0.1120    -1.6230 hc         1 ETY      -0.002400
      9 H4          -1.0010    -1.3620    -0.9960 hc         1 ETY      -0.018700
     10 H5           0.4160    -1.1910     1.0660 hc         1 ETY      -0.002600
     11 H6           1.3410    -1.3700    -0.4160 hc         1 ETY      -0.018300
     12 H7           2.4230     0.3220     1.0350 hc         1 ETY       0.047100
     13 H8           0.9410     1.2810     1.1060 hc         1 ETY       0.046400
     14 H9           1.8140     1.1180    -0.4240 hc         1 ETY       0.050100
@<TRIPOS>BOND
     1     8     2 1   
     2     9     2 1   
     3     2     1 1   
     4     2     3 1   
     5     7     1 1   
     6    14     4 1   
     7    11     3 1   
     8     1     5 1   
     9     1     6 1   
    10     3     4 1   
    11     3    10 1   
    12     4    12 1   
    13     4    13 1   
@<TRIPOS>SUBSTRUCTURE
     1 ETY         1 TEMP              0 ****  ****    0 ROOT
