@<TRIPOS>MOLECULE
THE.xyz
 8 7 0 0 0
SMALL
GASTEIGER

@<TRIPOS>ATOM
      1 C          -1.6643   -0.5343    0.2353 C.3     1  UNL1       -0.0554
      2 C          -0.1606   -0.8355    0.1553 C.3     1  UNL1        0.0011
      3 S           0.8746    0.6481   -0.1858 S.3     1  UNL1       -0.0934
      4 H          -2.2706   -1.4381    0.4417 H       1  UNL1        0.0238
      5 H          -1.8609    0.2009    1.0258 H       1  UNL1        0.0238
      6 H          -2.0129   -0.0932   -0.7071 H       1  UNL1        0.0238
      7 H          -0.0105   -1.6055   -0.6214 H       1  UNL1        0.0382
      8 H           0.1384   -1.3134    1.1047 H       1  UNL1        0.0382
@<TRIPOS>BOND
     1     6     1    1
     2     7     2    1
     3     3     2    1
     4     2     1    1
     5     2     8    1
     6     1     4    1
     7     1     5    1
