@<TRIPOS>MOLECULE
ARM
   18    18     1     0     0
SMALL
No Charge or Current Charge


@<TRIPOS>ATOM
      1 C            2.8080    -0.3810    -0.6510 c3         1 ARM      -0.043100
      2 C1           1.9930     0.2720     0.4790 c3         1 ARM       0.009400
      3 C2           0.4970     0.1540     0.2700 ca         1 ARM       0.056000
      4 C3          -0.2040    -0.9760     0.7130 ca         1 ARM      -0.181200
      5 C4          -1.5750    -1.1050     0.4890 ca         1 ARM      -0.155800
      6 C5          -2.2730    -0.1010    -0.1840 ca         1 ARM      -0.121300
      7 C6          -1.5880     1.0310    -0.6300 ca         1 ARM      -0.137700
      8 C7          -0.2170     1.1550    -0.4030 ca         1 ARM      -0.182100
      9 H            3.8840    -0.2810    -0.4680 hc         1 ARM       0.010300
     10 H1           2.5820     0.0840    -1.6170 hc         1 ARM       0.018300
     11 H2           2.5760    -1.4490    -0.7350 hc         1 ARM       0.016300
     12 H3           2.2690     1.3310     0.5560 hc         1 ARM       0.017200
     13 H4           2.2670    -0.1910     1.4350 hc         1 ARM       0.016600
     14 H5           0.3320    -1.7610     1.2430 ha         1 ARM       0.141900
     15 H6          -2.0990    -1.9890     0.8450 ha         1 ARM       0.138900
     16 H7          -3.3420    -0.1970    -0.3550 ha         1 ARM       0.126000
     17 H8          -2.1230     1.8220    -1.1510 ha         1 ARM       0.131400
     18 H9           0.3090     2.0420    -0.7500 ha         1 ARM       0.138800
@<TRIPOS>BOND
     1    10     1 1   
     2    17     7 1   
     3    18     8 1   
     4    11     1 1   
     5     1     9 1   
     6     1     2 1   
     7     7     8 ar  
     8     7     6 ar  
     9     8     3 ar  
    10    16     6 1   
    11     6     5 ar  
    12     3     2 1   
    13     3     4 ar  
    14     2    12 1   
    15     2    13 1   
    16     5     4 ar  
    17     5    15 1   
    18     4    14 1   
@<TRIPOS>SUBSTRUCTURE
     1 ARM         1 TEMP              0 ****  ****    0 ROOT
