@<TRIPOS>MOLECULE
AMO.xyz
 13 12 0 0 0
SMALL
GASTEIGER

@<TRIPOS>ATOM
      1 C          -1.6763    0.0957   -0.0573 C.3     1  UNL1       -0.0641
      2 C          -0.4865   -0.7803    0.3447 C.3     1  UNL1       -0.0435
      3 C           0.8281   -0.3831   -0.3369 C.3     1  UNL1       -0.0072
      4 N           1.2262    0.9803    0.0385 N.3     1  UNL1       -0.3300
      5 H          -1.4678    1.1486    0.1522 H       1  UNL1        0.0230
      6 H          -1.8830    0.0049   -1.1312 H       1  UNL1        0.0230
      7 H          -2.5844   -0.1955    0.4830 H       1  UNL1        0.0230
      8 H          -0.3465   -0.7378    1.4356 H       1  UNL1        0.0275
      9 H          -0.6952   -1.8326    0.1080 H       1  UNL1        0.0275
     10 H           0.6875   -0.3966   -1.4260 H       1  UNL1        0.0422
     11 H           1.5941   -1.1473   -0.1093 H       1  UNL1        0.0422
     12 H           2.0592    1.2535   -0.4802 H       1  UNL1        0.1182
     13 H           1.4910    0.9955    1.0234 H       1  UNL1        0.1182
@<TRIPOS>BOND
     1    10     3    1
     2     6     1    1
     3    12     4    1
     4     3    11    1
     5     3     4    1
     6     3     2    1
     7     1     5    1
     8     1     2    1
     9     1     7    1
    10     4    13    1
    11     9     2    1
    12     2     8    1
