@<TRIPOS>MOLECULE
AMO
   13    12     1     0     0
SMALL
No Charge or Current Charge


@<TRIPOS>ATOM
      1 C           -1.6760     0.0960    -0.0570 c3         1 AMO      -0.067100
      2 C1          -0.4860    -0.7800     0.3450 c3         1 AMO       0.029600
      3 C2           0.8280    -0.3830    -0.3370 c3         1 AMO       0.314500
      4 N            1.2260     0.9800     0.0380 n8         1 AMO      -0.971100
      5 H           -1.4680     1.1490     0.1520 hc         1 AMO       0.021200
      6 H1          -1.8830     0.0050    -1.1310 hc         1 AMO       0.018100
      7 H2          -2.5840    -0.1960     0.4830 hc         1 AMO       0.010800
      8 H3          -0.3460    -0.7380     1.4360 hc         1 AMO       0.017900
      9 H4          -0.6950    -1.8330     0.1080 hc         1 AMO      -0.033700
     10 H5           0.6880    -0.3970    -1.4260 h1         1 AMO       0.012300
     11 H6           1.5940    -1.1470    -0.1090 h1         1 AMO      -0.065500
     12 H7           2.0590     1.2540    -0.4800 hn         1 AMO       0.357400
     13 H8           1.4910     0.9960     1.0230 hn         1 AMO       0.355600
@<TRIPOS>BOND
     1    10     3 1   
     2     6     1 1   
     3    12     4 1   
     4     3    11 1   
     5     3     4 1   
     6     3     2 1   
     7     1     5 1   
     8     1     2 1   
     9     1     7 1   
    10     4    13 1   
    11     9     2 1   
    12     2     8 1   
@<TRIPOS>SUBSTRUCTURE
     1 AMO         1 TEMP              0 ****  ****    0 ROOT
