@<TRIPOS>MOLECULE
ETY.xyz
 14 13 0 0 0
SMALL
GASTEIGER

@<TRIPOS>ATOM
      1 C          -1.6369    0.4218    0.0345 C.3     1  UNL1       -0.0653
      2 C          -0.5658   -0.4001   -0.6923 C.3     1  UNL1       -0.0562
      3 C           0.6994   -0.6717    0.1387 C.3     1  UNL1       -0.0562
      4 C           1.5117    0.5820    0.4841 C.3     1  UNL1       -0.0653
      5 H          -1.2784    1.4249    0.2917 H       1  UNL1        0.0230
      6 H          -1.9453   -0.0691    0.9663 H       1  UNL1        0.0230
      7 H          -2.5307    0.5429   -0.5883 H       1  UNL1        0.0230
      8 H          -0.2817    0.1119   -1.6233 H       1  UNL1        0.0263
      9 H          -1.0006   -1.3622   -0.9955 H       1  UNL1        0.0263
     10 H           0.4160   -1.1906    1.0659 H       1  UNL1        0.0263
     11 H           1.3412   -1.3697   -0.4160 H       1  UNL1        0.0263
     12 H           2.4231    0.3219    1.0348 H       1  UNL1        0.0230
     13 H           0.9412    1.2808    1.1063 H       1  UNL1        0.0230
     14 H           1.8142    1.1181   -0.4245 H       1  UNL1        0.0230
@<TRIPOS>BOND
     1     8     2    1
     2     9     2    1
     3     2     1    1
     4     2     3    1
     5     7     1    1
     6    14     4    1
     7    11     3    1
     8     1     5    1
     9     1     6    1
    10     3     4    1
    11     3    10    1
    12     4    12    1
    13     4    13    1
