@<TRIPOS>MOLECULE
MTO.xyz
 12 11 0 0 0
SMALL
GASTEIGER

@<TRIPOS>ATOM
      1 C          -1.8663   -0.0964    0.1348 C.3     1  UNL1       -0.0416
      2 C          -0.4322   -0.5941    0.0590 C.3     1  UNL1        0.0445
      3 O           0.4266    0.5266   -0.0551 O.3     1  UNL1       -0.3832
      4 C           1.7871    0.1656   -0.1328 C.3     1  UNL1        0.0364
      5 H          -2.5607   -0.9390    0.2246 H       1  UNL1        0.0252
      6 H          -2.1228    0.4716   -0.7654 H       1  UNL1        0.0252
      7 H          -1.9991    0.5584    1.0021 H       1  UNL1        0.0252
      8 H          -0.1765   -1.1791    0.9600 H       1  UNL1        0.0557
      9 H          -0.2997   -1.2648   -0.8083 H       1  UNL1        0.0557
     10 H           2.3642    1.0904   -0.2176 H       1  UNL1        0.0523
     11 H           1.9945   -0.4658   -1.0128 H       1  UNL1        0.0523
     12 H           2.1189   -0.3801    0.7662 H       1  UNL1        0.0523
@<TRIPOS>BOND
     1    11     4    1
     2     9     2    1
     3     6     1    1
     4    10     4    1
     5     4     3    1
     6     4    12    1
     7     3     2    1
     8     2     1    1
     9     2     8    1
    10     1     5    1
    11     1     7    1
