@<TRIPOS>MOLECULE
THI
    9     8     1     0     0
SMALL
No Charge or Current Charge


@<TRIPOS>ATOM
      1 C           -1.6950     0.4320    -0.3300 c3         1 THI      -0.148500
      2 C1          -0.4370    -0.3570    -0.6810 c3         1 THI       0.032500
      3 S            0.9790    -0.0780     0.4690 sh         1 THI      -0.377900
      4 H           -2.5050     0.1830    -1.0280 hc         1 THI       0.041300
      5 H1          -1.5180     1.5120    -0.3960 hc         1 THI       0.060100
      6 H2          -2.0320     0.2070     0.6860 hc         1 THI       0.042500
      7 H3          -0.1090    -0.1490    -1.7040 h1         1 THI       0.028500
      8 H4          -0.6230    -1.4330    -0.6150 h1         1 THI       0.121800
      9 H5           1.1140     1.2460     0.2350 hs         1 THI       0.199700
@<TRIPOS>BOND
     1     7     2 1   
     2     4     1 1   
     3     2     8 1   
     4     2     1 1   
     5     2     3 1   
     6     5     1 1   
     7     1     6 1   
     8     9     3 1   
@<TRIPOS>SUBSTRUCTURE
     1 THI         1 TEMP              0 ****  ****    0 ROOT
