@<TRIPOS>MOLECULE
POS
   14    13     1     0     0
SMALL
No Charge or Current Charge


@<TRIPOS>ATOM
1	C	-1.6470	-0.4170	0.0430	c3	1	POS	-0.23450
2	C1	-0.5990	0.4130	-0.7080	c3	1	POS	0.00180
3	C2	0.6590	0.7230	0.0960	c3	1	POS	0.08240
4	N	1.4030	-0.5660	0.4670	nz	1	POS	-0.46270
5	H	-1.3100	-1.4400	0.2620	hc	1	POS	0.05540
6	H1	-1.9400	0.0590	0.9850	hc	1	POS	0.08430
7	H2	-2.5480	-0.5210	-0.5670	hc	1	POS	0.11610
8	H3	-0.3240	-0.0660	-1.6570	hc	1	POS	0.04890
9	H4	-1.0240	1.3870	-0.9800	hc	1	POS	0.07030
10	H5	0.4340	1.2130	1.0470	hx	1	POS	0.10000
11	H6	1.3770	1.3290	-0.4590	hx	1	POS	0.08020
12	H7	2.2350	-0.3800	1.0390	hn	1	POS	0.35940
13	H8	0.7920	-1.2000	0.9960	hn	1	POS	0.33990
14	H9	1.7100	-1.0710	-0.3740	hn	1	POS	0.35850
@<TRIPOS>BOND
     1     8     2 1   
     2     9     2 1   
     3     2     1 1   
     4     2     3 1   
     5     7     1 1   
     6    11     3 1   
     7    14     4 1   
     8     1     5 1   
     9     1     6 1   
    10     3     4 1   
    11     3    10 1   
    12     4    13 1   
    13     4    12 1   
@<TRIPOS>SUBSTRUCTURE
     1 POS         1 TEMP              0 ****  ****    0 ROOT
