@<TRIPOS>MOLECULE
POS.xyz
 14 13 0 0 0
SMALL
GASTEIGER

@<TRIPOS>ATOM
      1 C          -1.6473   -0.4175    0.0430 C.3     1  UNL1       -0.2345
      2 C          -0.5990    0.4135   -0.7082 C.3     1  UNL1        0.0018
      3 C           0.6594    0.7225    0.0963 C.3     1  UNL1        0.0824
      4 N           1.4030   -0.5661    0.4665 N.4     1  UNL1       -0.4627
      5 H          -1.3103   -1.4404    0.2621 H       1  UNL1        0.0554
      6 H          -1.9404    0.0592    0.9851 H       1  UNL1        0.0843
      7 H          -2.5484   -0.5209   -0.5673 H       1  UNL1        0.1161
      8 H          -0.3238   -0.0662   -1.6572 H       1  UNL1        0.0489
      9 H          -1.0244    1.3867   -0.9796 H       1  UNL1        0.0703
     10 H           0.4344    1.2129    1.0468 H       1  UNL1        0.1000
     11 H           1.3774    1.3295   -0.4594 H       1  UNL1        0.0802
     12 H           2.2351   -0.3803    1.0393 H       1  UNL1        0.3594
     13 H           0.7917   -1.1999    0.9961 H       1  UNL1        0.3399
     14 H           1.7099   -1.0711   -0.3744 H       1  UNL1        0.3585
@<TRIPOS>BOND
     1     8     2    1
     2     9     2    1
     3     2     1    1
     4     2     3    1
     5     7     1    1
     6    11     3    1
     7    14     4    1
     8     1     5    1
     9     1     6    1
    10     3     4    1
    11     3    10    1
    12     4    13    1
    13     4    12    1
