@<TRIPOS>MOLECULE
CBX
   11    10     1     0     0
SMALL
No Charge or Current Charge


@<TRIPOS>ATOM
      1 C           -1.9740     0.2040     0.5070 c3         1 CBX      -0.346800
      2 C1          -0.8220    -0.7050     0.0850 c3         1 CBX       0.048800
      3 C2           0.4790     0.0450    -0.1080 c          1 CBX       0.761600
      4 O            0.6470     1.2350     0.0440 o          1 CBX      -0.598400
      5 O1           1.4820    -0.7890    -0.4850 oh         1 CBX      -0.702100
      6 H           -2.1570     0.9790    -0.2440 hc         1 CBX       0.097600
      7 H1          -1.7490     0.7090     1.4510 hc         1 CBX       0.097600
      8 H2          -2.8920    -0.3780     0.6350 hc         1 CBX       0.090600
      9 H3          -0.6410    -1.4960     0.8250 hc         1 CBX       0.041600
     10 H4          -1.0440    -1.2290    -0.8540 hc         1 CBX       0.041500
     11 H5           2.2740    -0.2280    -0.5850 ho         1 CBX       0.468000
@<TRIPOS>BOND
     1    10     2 1   
     2    11     5 1   
     3     5     3 1   
     4     6     1 1   
     5     3     4 2   
     6     3     2 1   
     7     2     1 1   
     8     2     9 1   
     9     1     8 1   
    10     1     7 1   
@<TRIPOS>SUBSTRUCTURE
     1 CBX         1 TEMP              0 ****  ****    0 ROOT
