@<TRIPOS>MOLECULE
CBX.xyz
 11 10 0 0 0
SMALL
GASTEIGER

@<TRIPOS>ATOM
      1 C          -1.9738    0.2041    0.5069 C.3     1  UNL1       -0.0552
      2 C          -0.8216   -0.7051    0.0851 C.3     1  UNL1        0.0420
      3 C           0.4788    0.0452   -0.1076 C.2     1  UNL1        0.3044
      4 O           0.6470    1.2349    0.0439 O.2     1  UNL1       -0.2510
      5 O           1.4823   -0.7894   -0.4848 O.3     1  UNL1       -0.4806
      6 H          -2.1571    0.9787   -0.2436 H       1  UNL1        0.0235
      7 H          -1.7491    0.7093    1.4509 H       1  UNL1        0.0235
      8 H          -2.8921   -0.3778    0.6355 H       1  UNL1        0.0235
      9 H          -0.6412   -1.4962    0.8245 H       1  UNL1        0.0375
     10 H          -1.0442   -1.2290   -0.8535 H       1  UNL1        0.0375
     11 H           2.2741   -0.2281   -0.5847 H       1  UNL1        0.2951
@<TRIPOS>BOND
     1    10     2    1
     2    11     5    1
     3     5     3    1
     4     6     1    1
     5     3     4    2
     6     3     2    1
     7     2     1    1
     8     2     9    1
     9     1     8    1
    10     1     7    1
