@<TRIPOS>MOLECULE
GUA
   17    16     1     0     0
SMALL
No Charge or Current Charge


@<TRIPOS>ATOM
1	C	2.6870	-0.0040	-0.1900	c3	1	GUA	-0.40610
2	C1	1.2670	0.1350	0.3540	c3	1	GUA	0.55900
3	N	0.2890	0.0560	-0.7340	n7	1	GUA	-0.92470
4	C2	-1.1240	0.0180	-0.3440	c3	1	GUA	0.70180
5	N1	-1.3630	-1.2670	0.2940	n8	1	GUA	-0.91480
6	N2	-1.6430	1.0260	0.5810	n8	1	GUA	-1.04100
7	H	2.8040	-0.9520	-0.7250	hc	1	GUA	0.11270
8	H1	2.9270	0.8080	-0.8890	hc	1	GUA	0.09360
9	H2	3.4220	0.0330	0.6230	hc	1	GUA	0.07120
10	H3	1.0480	-0.6830	1.0470	h1	1	GUA	-0.01680
11	H4	1.1890	1.0730	0.9360	h1	1	GUA	-0.09740
12	H5	0.4320	0.8280	-1.3820	hn	1	GUA	0.35190
13	H6	-1.6800	0.1640	-1.2880	h3	1	GUA	0.01330
14	H7	-2.3520	-1.3540	0.5130	hn	1	GUA	0.36030
15	H8	-1.1020	-2.0130	-0.3460	hn	1	GUA	0.35780
16	H9	-1.1550	0.9470	1.4720	hn	1	GUA	0.39510
17	H10	-1.4750	1.9620	0.2170	hn	1	GUA	0.38410
@<TRIPOS>BOND
     1    12     3 1   
     2    13     4 1   
     3     8     1 1   
     4     3     4 1   
     5     3     2 1   
     6     7     1 1   
     7    15     5 1   
     8     4     5 1   
     9     4     6 1   
    10     1     2 1   
    11     1     9 1   
    12    17     6 1   
    13     5    14 1   
    14     2    11 1   
    15     2    10 1   
    16     6    16 1   
@<TRIPOS>SUBSTRUCTURE
     1 GUA         1 TEMP              0 ****  ****    0 ROOT
