@<TRIPOS>MOLECULE
GUA.xyz
 15 14 0 0 0
SMALL
GASTEIGER

@<TRIPOS>ATOM
      1 C           2.1703    0.4999    0.7480 C.3     1  UNL1       -0.0343
      2 C           1.5102   -0.4942   -0.2124 C.3     1  UNL1        0.0618
      3 N           0.1275   -0.8288    0.1210 N.pl3   1  UNL1       -0.2764
      4 C          -0.8913    0.0645   -0.1777 C.cat   1  UNL1        0.3762
      5 N          -0.6517    1.1393   -0.8413 N.pl3   1  UNL1       -0.1298
      6 N          -2.1600   -0.3846    0.2178 N.pl3   1  UNL1       -0.2893
      7 H           2.1882    0.1113    1.7745 H       1  UNL1        0.0260
      8 H           1.6240    1.4469    0.7392 H       1  UNL1        0.0260
      9 H           3.2069    0.6943    0.4472 H       1  UNL1        0.0260
     10 H           1.4954   -0.0804   -1.2229 H       1  UNL1        0.0652
     11 H           2.0749   -1.4343   -0.2408 H       1  UNL1        0.0652
     12 H           0.0170   -1.3292    0.9949 H       1  UNL1        0.2578
     13 H          -1.5253    1.5979   -1.1054 H       1  UNL1        0.3062
     14 H          -2.8044    0.3530    0.4701 H       1  UNL1        0.2546
     15 H          -2.1920   -1.1644    0.8633 H       1  UNL1        0.2546
@<TRIPOS>BOND
     1    10     2    1
     2    13     5    1
     3     5     4    2
     4    11     2    1
     5     2     3    1
     6     2     1    1
     7     4     3    1
     8     4     6    1
     9     3    12    1
    10     6    14    1
    11     6    15    1
    12     9     1    1
    13     8     1    1
    14     1     7    1
