@<TRIPOS>MOLECULE
GUA.xyz
 17 16 0 0 0
SMALL
GASTEIGER

@<TRIPOS>ATOM
      1 C           2.6874   -0.0037   -0.1899 C.3     1  UNL1       -0.4061
      2 C           1.2669    0.1345    0.3542 C.3     1  UNL1        0.5590
      3 N           0.2890    0.0556   -0.7338 N.3     1  UNL1       -0.9247
      4 C          -1.1241    0.0181   -0.3444 C.3     1  UNL1        0.7018
      5 N          -1.3629   -1.2674    0.2940 N.3     1  UNL1       -0.9148
      6 N          -1.6435    1.0258    0.5814 N.3     1  UNL1       -1.0411
      7 H           2.8040   -0.9515   -0.7253 H       1  UNL1        0.1127
      8 H           2.9272    0.8082   -0.8890 H       1  UNL1        0.0936
      9 H           3.4216    0.0329    0.6230 H       1  UNL1        0.0712
     10 H           1.0479   -0.6833    1.0471 H       1  UNL1       -0.0168
     11 H           1.1891    1.0725    0.9358 H       1  UNL1       -0.0974
     12 H           0.4323    0.8280   -1.3824 H       1  UNL1        0.3519
     13 H          -1.6796    0.1641   -1.2876 H       1  UNL1        0.0133
     14 H          -2.3522   -1.3541    0.5134 H       1  UNL1        0.3603
     15 H          -1.1017   -2.0132   -0.3460 H       1  UNL1        0.3578
     16 H          -1.1551    0.9471    1.4724 H       1  UNL1        0.3951
     17 H          -1.4753    1.9618    0.2167 H       1  UNL1        0.3841
@<TRIPOS>BOND
     1    12     3    1
     2    13     4    1
     3     8     1    1
     4     3     4    1
     5     3     2    1
     6     7     1    1
     7    15     5    1
     8     4     5    1
     9     4     6    1
    10     1     2    1
    11     1     9    1
    12    17     6    1
    13     5    14    1
    14     2    11    1
    15     2    10    1
    16     6    16    1
