@<TRIPOS>MOLECULE
GUA
   15    14     1     0     0
SMALL
No Charge or Current Charge


@<TRIPOS>ATOM
      1 C            2.1700     0.5000     0.7480 c3         1 GUA      -0.298700
      2 C1           1.5100    -0.4940    -0.2120 c3         1 GUA       0.233200
      3 N            0.1280    -0.8290     0.1210 nu         1 GUA      -0.744900
      4 C2          -0.8910     0.0650    -0.1780 c2         1 GUA       0.911200
      5 N1          -0.6520     1.1390    -0.8410 n2         1 GUA      -0.885900
      6 N2          -2.1600    -0.3850     0.2180 nv         1 GUA      -1.027700
      7 H            2.1880     0.1110     1.7740 hc         1 GUA       0.073500
      8 H1           1.6240     1.4470     0.7390 hc         1 GUA       0.082700
      9 H2           3.2070     0.6940     0.4470 hc         1 GUA       0.070500
     10 H3           1.4950    -0.0800    -1.2230 h1         1 GUA       0.063400
     11 H4           2.0750    -1.4340    -0.2410 h1         1 GUA       0.015300
     12 H5           0.0170    -1.3290     0.9950 hn         1 GUA       0.358900
     13 H6          -1.5250     1.5980    -1.1050 hn         1 GUA       0.350100
     14 H7          -2.8040     0.3530     0.4700 hn         1 GUA       0.397600
     15 H8          -2.1920    -1.1640     0.8630 hn         1 GUA       0.400900
@<TRIPOS>BOND
     1    10     2 1   
     2    13     5 1   
     3     5     4 2   
     4    11     2 1   
     5     2     3 1   
     6     2     1 1   
     7     4     3 1   
     8     4     6 1   
     9     3    12 1   
    10     6    14 1   
    11     6    15 1   
    12     9     1 1   
    13     8     1 1   
    14     1     7 1   
@<TRIPOS>SUBSTRUCTURE
     1 GUA         1 TEMP              0 ****  ****    0 ROOT
