@<TRIPOS>MOLECULE
CBO.xyz
 7 6 0 0 0
SMALL
GASTEIGER

@<TRIPOS>ATOM
      1 C          -1.2503    0.2265    0.0965 C.3     1  UNL1       -0.0091
      2 C           0.2533    0.3450    0.0922 C.2     1  UNL1        0.1172
      3 O           1.0148   -0.5545   -0.1843 O.2     1  UNL1       -0.3013
      4 H          -1.6832    0.9560   -0.6008 H       1  UNL1        0.0303
      5 H          -1.5551   -0.7843   -0.1839 H       1  UNL1        0.0303
      6 H          -1.6399    0.4732    1.0930 H       1  UNL1        0.0303
      7 H           0.6435    1.3509    0.3702 H       1  UNL1        0.1023
@<TRIPOS>BOND
     1     4     1    1
     2     3     2    2
     3     5     1    1
     4     2     1    1
     5     2     7    1
     6     1     6    1
