@<TRIPOS>MOLECULE
MTI
   12    11     1     0     0
SMALL
No Charge or Current Charge


@<TRIPOS>ATOM
1	C	-1.8560	0.5680	-0.5040	c3	1	MTI	-0.02240
2	C1	-1.0090	-0.6250	-0.0630	c3	1	MTI	0.05620
3	S	0.6170	-0.1930	0.6770	ss	1	MTI	-0.28600
4	C2	1.5110	0.4230	-0.7940	c3	1	MTI	-0.31610
5	H	-2.8210	0.2240	-0.8970	hc	1	MTI	-0.00780
6	H1	-1.3640	1.1430	-1.2960	hc	1	MTI	0.03540
7	H2	-2.0480	1.2440	0.3350	hc	1	MTI	0.01970
8	H3	-1.5220	-1.1890	0.7230	h1	1	MTI	0.07260
9	H4	-0.8390	-1.3180	-0.8950	h1	1	MTI	0.03630
10	H5	1.0600	1.3350	-1.1960	h1	1	MTI	0.11560
11	H6	1.5570	-0.3420	-1.5750	h1	1	MTI	0.12370
12	H7	2.5290	0.6540	-0.4690	h1	1	MTI	0.17280
@<TRIPOS>BOND
     1    11     4 1   
     2     6     1 1   
     3    10     4 1   
     4     5     1 1   
     5     9     2 1   
     6     4    12 1   
     7     4     3 1   
     8     1     2 1   
     9     1     7 1   
    10     2     3 1   
    11     2     8 1   
@<TRIPOS>SUBSTRUCTURE
     1 MTI         1 TEMP              0 ****  ****    0 ROOT
