@<TRIPOS>MOLECULE
MTI.xyz
 12 11 0 0 0
SMALL
GASTEIGER

@<TRIPOS>ATOM
      1 C          -1.8563    0.5683   -0.5040 C.3     1  UNL1       -0.0224
      2 C          -1.0089   -0.6247   -0.0631 C.3     1  UNL1        0.0562
      3 S           0.6172   -0.1929    0.6769 S.3     1  UNL1       -0.2860
      4 C           1.5106    0.4232   -0.7937 C.3     1  UNL1       -0.3161
      5 H          -2.8211    0.2238   -0.8975 H       1  UNL1       -0.0078
      6 H          -1.3643    1.1434   -1.2957 H       1  UNL1        0.0354
      7 H          -2.0480    1.2442    0.3352 H       1  UNL1        0.0197
      8 H          -1.5223   -1.1886    0.7232 H       1  UNL1        0.0726
      9 H          -0.8394   -1.3180   -0.8955 H       1  UNL1        0.0363
     10 H           1.0596    1.3345   -1.1961 H       1  UNL1        0.1156
     11 H           1.5573   -0.3417   -1.5755 H       1  UNL1        0.1237
     12 H           2.5286    0.6538   -0.4690 H       1  UNL1        0.1728
@<TRIPOS>BOND
     1    11     4    1
     2     6     1    1
     3    10     4    1
     4     5     1    1
     5     9     2    1
     6     4    12    1
     7     4     3    1
     8     1     2    1
     9     1     7    1
    10     2     3    1
    11     2     8    1
